Circuit: * C:\Users\torsten\Documents\Seafile\Arbeit_Lehre\_2021SS\prog1\repos\prog1_ws2020_private\Uebungen\061_Datenreihe\daten\ltspice\schaltung.asc

Direct Newton iteration for .op point succeeded.

Date: Fri May  7 09:58:11 2021
Total elapsed time: 0.164 seconds.

tnom = 27
temp = 27
method = modified trap
totiter = 20038
traniter = 20034
tranpoints = 10018
accept = 10018
rejected = 0
matrix size = 7
fillins = 0
solver = Normal
Matrix Compiler1: 160 bytes object code size  0.1/0.1/[0.0]
Matrix Compiler2: 413 bytes object code size  0.0/0.1/[0.0]

